(|SYSTEM|::|VERSION| '(20080430.))
#0Y_ #0Y |CHARSET|::|UTF-8|
#Y(#:|1 14 (REQUIRE "utils")-1|
   #15Y(00 00 00 00 00 00 00 00 20 01 DA 2F 01 19 01)
   ("utils" |COMMON-LISP|::|REQUIRE|)
   (|COMMON-LISP|::|T| |COMMON-LISP|::|T| |COMMON-LISP|::|T|))
#Y(#:|16 18 (DEFPACKAGE :REPETITIONS (:USE :COMMON-LISP :UTILS) ...)-2-1|
   #18Y(00 00 00 00 00 00 00 00 20 01 DA 01 04 31 F0 3E 19 01) ("REPETITIONS")
   (|COMMON-LISP|::|T| |COMMON-LISP|::|T| |COMMON-LISP|::|T|))
#Y(#:|16 18 (DEFPACKAGE :REPETITIONS (:USE :COMMON-LISP :UTILS) ...)-2-2|
   #17Y(00 00 00 00 00 00 00 00 20 01 DA DB 31 EC 3E 19 01)
   (("COMMON-LISP" "UTILS") "REPETITIONS")
   (|COMMON-LISP|::|T| |COMMON-LISP|::|T| |COMMON-LISP|::|T|))
#Y(#:|16 18 (DEFPACKAGE :REPETITIONS (:USE :COMMON-LISP :UTILS) ...)-2-3|
   #19Y(00 00 00 00 00 00 00 00 20 01 DA DB 63 2D 03 02 3E 19 01)
   ((#1="REPETITIONS") #1# |SYSTEM|::|INTERN-EXPORT|)
   (|COMMON-LISP|::|T| |COMMON-LISP|::|T| |COMMON-LISP|::|T|))
#Y(#:|16 18 (DEFPACKAGE :REPETITIONS (:USE :COMMON-LISP :UTILS) ...)-2-4|
   #15Y(00 00 00 00 00 00 00 00 20 01 DA 31 D9 19 01) ("REPETITIONS")
   (|COMMON-LISP|::|T| |COMMON-LISP|::|NIL| |COMMON-LISP|::|NIL|))
#Y(#:|20 20 (IN-PACKAGE :REPETITIONS)-3|
   #17Y(00 00 00 00 00 00 00 00 20 01 DA 31 F6 0F 01 19 01)
   ("REPETITIONS" |COMMON-LISP|::|*PACKAGE*|)
   (|COMMON-LISP|::|T| |COMMON-LISP|::|T| |COMMON-LISP|::|T|))
#Y(#:|22 46 (DEFUN LPTEXT (PATTERN TEXT &KEY ...) ...)-4|
   #20Y(00 00 00 00 00 00 00 00 20 01 DA 2F 01 DA DC 32 9C C5 19 01)
   (|REPETITIONS|::|LPTEXT| |SYSTEM|::|REMOVE-OLD-DEFINITIONS|
    #Y(|REPETITIONS|::|LPTEXT|
       #239Y(00 00 00 00 02 00 00 00 A6 1D 03 00 00 00 3D 03 3B 02 02 C8 FA 3B
             01 02 C9 F9 B1 72 62 B1 72 62 96 00 38 07 CA FC 71 1D DF 92 07 08
             B5 DB B4 DC B5 2D 05 06 14 B0 B0 73 01 36 DF 1B 02 85 00 AC AE 90
             01 34 15 B5 B5 BA AF 73 01 01 76 01 B6 BA B0 73 01 01 76 01 36 02
             1C 63 B0 B0 AE 33 01 02 16 02 E1 01 02 1B 80 7B AF AE 73 01 01 B2
             B0 AE 33 01 02 16 01 1B 80 69 CA 1B 2F AE B1 82 01 38 01 B1 B1 73
             01 01 AE 82 01 38 00 AD B4 91 01 31 0A AF AE 73 01 01 AD 90 01 31
             4D AE B1 B3 B3 73 01 01 73 02 37 90 01 34 4F 9D 14 B4 B4 B1 73 01
             38 73 01 36 1B 02 85 01 AD AD 90 01 34 19 B8 B8 BD B0 73 01 01 76
             01 B9 BD B1 B5 73 02 37 73 01 01 76 01 36 02 1C 5F B3 B1 AF 33 01
             02 A1 FE 16 02 85 02 AE B3 91 01 34 FF 91 16 03 9F 19 0B)
       (:|LPPATTERN| :|TEST| :|KEY| #.#'|COMMON-LISP|::|EQL|
        #.#'|COMMON-LISP|::|IDENTITY| 0. |REPETITIONS|::|LPPATTERN| 1.)
       (|COMMON-LISP|::|T| |COMMON-LISP|::|T| |COMMON-LISP|::|T|)
       (|REPETITIONS|::|PATTERN| |REPETITIONS|::|TEXT| |COMMON-LISP|::|&KEY|
        (|REPETITIONS|::|LPPATTERN| |COMMON-LISP|::|NIL|)
        (|REPETITIONS|::|TEST| #'|COMMON-LISP|::|EQL|)
        (|REPETITIONS|::|KEY| #'|COMMON-LISP|::|IDENTITY|))
       "Returns LPTEXT, a vector [LPTEXT-0 LPTEXT-1 ... LPTEXT-N]\n
where N is the length of TEXT. LPTEXT-I is the length of the\n
longest prefix of the subsequence of TEXT starting at position I\n
which is also a prefix of PATTERN. See also `lppattern'."
       1))
   (|COMMON-LISP|::|T| |COMMON-LISP|::|T| |COMMON-LISP|::|T|))
#Y(#:|47 68 (DEFUN LPPATTERN (PATTERN &KEY # ...) ...)-5|
   #20Y(00 00 00 00 00 00 00 00 20 01 DA 2F 01 DA DC 32 9C C5 19 01)
   (|REPETITIONS|::|LPPATTERN| |SYSTEM|::|REMOVE-OLD-DEFINITIONS|
    #Y(|REPETITIONS|::|LPPATTERN|
       #199Y(00 00 00 00 01 00 00 00 A6 1C 02 00 00 00 3B 02 02 C7 FA 3B 01 02
             C8 F9 AF 72 62 96 00 38 07 C9 FC 71 1D DF AD DE B0 33 01 02 B2 DE
             73 01 01 B3 38 05 B8 72 7A 92 00 01 A0 F8 72 B2 AE AE AE 33 01 02
             16 01 E0 01 02 1B 80 71 B0 AE 73 01 01 B1 B0 AE 33 01 02 16 01 1B
             80 5F C9 1B 29 AE B0 82 01 38 01 B0 B0 73 01 01 AE 82 01 38 00 B0
             AE 73 01 01 AD 90 01 31 53 AE B0 B2 B2 73 01 01 73 02 37 90 01 34
             55 9D 14 B2 B0 73 01 38 1B 02 85 01 AD AD 90 01 34 19 B6 B6 B9 B0
             73 01 01 76 01 B7 BA B1 B5 73 02 37 73 01 01 76 01 36 02 1C 5F B2
             B1 AF 33 01 02 A1 FD 16 02 85 02 AE B2 91 01 34 FF 9B 16 03 9E 19
             07)
       (:|TEST| :|KEY| #.#'|COMMON-LISP|::|EQL| #.#'|COMMON-LISP|::|IDENTITY|
        0. 1. 2.)
       (|COMMON-LISP|::|T| |COMMON-LISP|::|T| |COMMON-LISP|::|T|)
       (|REPETITIONS|::|PATTERN| |COMMON-LISP|::|&KEY|
        (|REPETITIONS|::|TEST| #'|COMMON-LISP|::|EQL|)
        (|REPETITIONS|::|KEY| #'|COMMON-LISP|::|IDENTITY|))
       "Returns the equivalent of (LPTEXT pattern pattern). See\n
`lptext' for further details. See also comment in the foreword."
       1))
   (|COMMON-LISP|::|T| |COMMON-LISP|::|T| |COMMON-LISP|::|T|))
#Y(#:|69 82 (DEFUN LSPATTERN (PATTERN &KEY # ...) ...)-6|
   #20Y(00 00 00 00 00 00 00 00 20 01 DA 2F 01 DA DC 32 9C C5 19 01)
   (|REPETITIONS|::|LSPATTERN| |SYSTEM|::|REMOVE-OLD-DEFINITIONS|
    #Y(|REPETITIONS|::|LSPATTERN|
       #38Y(00 00 00 00 01 00 00 00 A6 1C 02 00 00 00 3B 02 02 C7 FA 3B 01 02
            C8 F9 AF 72 63 DA B0 DB B1 6E 05 04 32 64 19 04)
       (:|TEST| :|KEY| #.#'|COMMON-LISP|::|EQL| #.#'|COMMON-LISP|::|IDENTITY|
        |REPETITIONS|::|LPPATTERN|)
       (|COMMON-LISP|::|T| |COMMON-LISP|::|T| |COMMON-LISP|::|T|)
       (|REPETITIONS|::|PATTERN| |COMMON-LISP|::|&KEY|
        (|REPETITIONS|::|TEST| #'|COMMON-LISP|::|EQL|)
        (|REPETITIONS|::|KEY| #'|COMMON-LISP|::|IDENTITY|))
       "Returns LSPATTERN, a vector [LSPATTERN-0 LSPATTERN-1 ...\n
LSPATTERN-M], where M is the length of PATTERN. LSPATTERN-I is\n
the length of the longest subsequence of PATTERN which ends at\n
position I and is a suffix of PATTERN. Note that the first entry\n
in LSPATTERN corresponds to the subsequence ending at index zero.\n
Hence, this subsequence is the empty sequence and so this value\n
is always zero. Also, note that the last entry corresponds to the\n
prefix ending at index M. Thus, this prefix is the pattern\n
itself, so the last entry is always M."
       1))
   (|COMMON-LISP|::|T| |COMMON-LISP|::|T| |COMMON-LISP|::|T|))
#Y(#:|83 93 (DEFUN LSTEXT (PATTERN TEXT &KEY ...) ...)-7|
   #20Y(00 00 00 00 00 00 00 00 20 01 DA 2F 01 DA DC 32 9C C5 19 01)
   (|REPETITIONS|::|LSTEXT| |SYSTEM|::|REMOVE-OLD-DEFINITIONS|
    #Y(|REPETITIONS|::|LSTEXT|
       #51Y(00 00 00 00 02 00 00 00 A6 1D 03 00 00 00 3D 03 3B 02 02 C8 FA 3B
            01 02 C9 F9 B1 72 63 B1 72 63 DF 93 06 03 14 32 63 14 DB B3 DC B4
            6E 08 06 32 64 19 06)
       (:|LSPATTERN| :|TEST| :|KEY| #.#'|COMMON-LISP|::|EQL|
        #.#'|COMMON-LISP|::|IDENTITY| :|LPPATTERN| |REPETITIONS|::|LPTEXT|)
       (|COMMON-LISP|::|T| |COMMON-LISP|::|T| |COMMON-LISP|::|T|)
       (|REPETITIONS|::|PATTERN| |REPETITIONS|::|TEXT| |COMMON-LISP|::|&KEY|
        (|REPETITIONS|::|LSPATTERN| |COMMON-LISP|::|NIL|)
        (|REPETITIONS|::|TEST| #'|COMMON-LISP|::|EQL|)
        (|REPETITIONS|::|KEY| #'|COMMON-LISP|::|IDENTITY|))
       "Returns LSTEXT, a vector [LSTEXT-0 LSTEXT-1 ... LSTEXT-N],\n
where LSTEXT-I is the length of the longest subsequence of TEXT\n
which ends at position I and is a suffix of PATTERN. See also\n
`lspattern' and `lptext'."
       1))
   (|COMMON-LISP|::|T| |COMMON-LISP|::|T| |COMMON-LISP|::|T|))
#Y(#:|94 103 (DEFUN RIGHT-REPETITIONS (U V V-OFFSET ...) ...)-8|
   #20Y(00 00 00 00 00 00 00 00 20 01 DA 2F 01 DA DC 32 9C C5 19 01)
   (|REPETITIONS|::|RIGHT-REPETITIONS| |SYSTEM|::|REMOVE-OLD-DEFINITIONS|
    #Y(|REPETITIONS|::|RIGHT-REPETITIONS|
       #106Y(00 00 00 00 06 00 01 00 26 00 3D 01 B3 B3 DA B2 DB B3 6E 06 02 B3
             DA B2 DB B3 6E 05 03 92 03 0A CA 14 B3 B6 72 62 01 03 1B 35 C9 1B
             74 B1 B1 B5 B3 73 01 01 73 01 38 82 01 35 02 97 04 B3 B2 73 01 01
             82 01 36 01 AE AE 91 01 33 11 B0 BA B0 73 02 37 BB B0 73 02 37 7B
             02 7B 02 84 00 85 04 B0 B0 91 01 32 48 AC 31 B1 19 10)
       (:|TEST| :|KEY| |REPETITIONS|::|LSTEXT| |REPETITIONS|::|LPPATTERN| 0.
        1.)
       (|COMMON-LISP|::|T| |COMMON-LISP|::|T| |COMMON-LISP|::|T|)
       (|REPETITIONS|::|U| |REPETITIONS|::|V| |REPETITIONS|::|V-OFFSET|
        |REPETITIONS|::|MIN-LENGTH| |REPETITIONS|::|TEST| |REPETITIONS|::|KEY|
        |COMMON-LISP|::|&OPTIONAL| |REPETITIONS|::|WITH-CENTER-REPETITIONS-P|)
       |COMMON-LISP|::|NIL| 1))
   (|COMMON-LISP|::|T| |COMMON-LISP|::|T| |COMMON-LISP|::|T|))
#Y(#:|104 110 (DEFUN OFFSET-CENTER-POSTITIONS (REPETITIONS OFFSET-FUNCTION) ...)-9|
   #20Y(00 00 00 00 00 00 00 00 20 01 DA 2F 01 DA DC 32 9C C5 19 01)
   (|REPETITIONS|::|OFFSET-CENTER-POSTITIONS|
    |SYSTEM|::|REMOVE-OLD-DEFINITIONS|
    #Y(|REPETITIONS|::|OFFSET-CENTER-POSTITIONS|
       #41Y(00 00 00 00 02 00 00 00 26 03 AE 01 02 1B 11 87 02 01 78 B1 A0 5C
            78 73 00 16 7B 02 84 00 83 02 AE 8D 9F 6B AC 31 B1 19 06)
       () (|COMMON-LISP|::|T| |COMMON-LISP|::|T| |COMMON-LISP|::|T|)
       (|REPETITIONS|::|REPETITIONS| |REPETITIONS|::|OFFSET-FUNCTION|)
       "OFFSET-FUNCTION takes the old position as the only argument" 1))
   (|COMMON-LISP|::|T| |COMMON-LISP|::|T| |COMMON-LISP|::|T|))
#Y(#:|112 118 (DEFUN LEFT-REPETITIONS (U V U-OFFSET ...) ...)-10|
   #20Y(00 00 00 00 00 00 00 00 20 01 DA 2F 01 DA DC 32 9C C5 19 01)
   (|REPETITIONS|::|LEFT-REPETITIONS| |SYSTEM|::|REMOVE-OLD-DEFINITIONS|
    #Y(|REPETITIONS|::|LEFT-REPETITIONS|
       #43Y(00 00 00 00 06 00 01 00 26 00 3D 01 00 2B 01 B4 32 62 0B 00 00 B3
            72 63 B5 72 63 DA B4 B4 B4 B4 6E 07 01 AD 6D 02 01 30 03 19 09)
       (0. |REPETITIONS|::|RIGHT-REPETITIONS|
        #Y(|REPETITIONS|::|LEFT-REPETITIONS-1|
           #19Y(00 00 00 00 01 00 00 00 26 02 69 00 01 AE 33 01 38 19 02)
           (|COMMON-LISP|::|NIL|)
           (|COMMON-LISP|::|T| |COMMON-LISP|::|NIL| |COMMON-LISP|::|NIL|)
           (|REPETITIONS|::|X|) |COMMON-LISP|::|NIL| 1)
        |REPETITIONS|::|OFFSET-CENTER-POSTITIONS|)
       (|COMMON-LISP|::|T| |COMMON-LISP|::|T| |COMMON-LISP|::|T|)
       (|REPETITIONS|::|U| |REPETITIONS|::|V| |REPETITIONS|::|U-OFFSET|
        |REPETITIONS|::|MIN-LENGTH| |REPETITIONS|::|TEST| |REPETITIONS|::|KEY|
        |COMMON-LISP|::|&OPTIONAL| |REPETITIONS|::|WITH-CENTER-REPETITIONS-P|)
       "The positions returned by right-repetitions must be reversed.\n
With offset 0, each position should be inverted on the length of\n
U. Finally the U-OFFSET must be added."
       1))
   (|COMMON-LISP|::|T| |COMMON-LISP|::|T| |COMMON-LISP|::|T|))
#Y(#:|119 131 (DEFUN REPETITIONS-1 (SEQUENCE OFFSET MIN-LENGTH ...) ...)-11|
   #20Y(00 00 00 00 00 00 00 00 20 01 DA 2F 01 DA DC 32 9C C5 19 01)
   (|REPETITIONS|::|REPETITIONS-1| |SYSTEM|::|REMOVE-OLD-DEFINITIONS|
    #Y(|REPETITIONS|::|REPETITIONS-1|
       #87Y(00 00 00 00 05 00 00 00 26 06 B1 72 62 AC DA B2 73 02 39 90 01 31
            3D AC DA 72 CE B3 DB AE 72 60 B4 AE 38 01 72 60 AD DB B5 B5 B5 6C
            5D AD B0 B6 B6 B6 6C 56 AF AF DB B8 B8 B8 64 6E 07 02 B0 B0 B3 B9
            B9 B9 63 6E 07 03 73 04 23 AC DE B7 70 05 30 06 19 0B 00 19 07)
       (2. 0. |REPETITIONS|::|LEFT-REPETITIONS|
        |REPETITIONS|::|RIGHT-REPETITIONS| #.#'|COMMON-LISP|::|+|
        |UTILS|::|BIND| |REPETITIONS|::|OFFSET-CENTER-POSTITIONS|)
       (|COMMON-LISP|::|T| |COMMON-LISP|::|T| |COMMON-LISP|::|T|)
       (|COMMON-LISP|::|SEQUENCE| |REPETITIONS|::|OFFSET|
        |REPETITIONS|::|MIN-LENGTH| |REPETITIONS|::|TEST| |REPETITIONS|::|KEY|)
       |COMMON-LISP|::|NIL| 1))
   (|COMMON-LISP|::|T| |COMMON-LISP|::|T| |COMMON-LISP|::|T|))
#Y(#:|132 135 (DEFUN REPETITIONS (SEQUENCE &KEY # ...) ...)-12|
   #20Y(00 00 00 00 00 00 00 00 20 01 DA 2F 01 DA DC 32 9C C5 19 01)
   (|REPETITIONS|::|REPETITIONS| |SYSTEM|::|REMOVE-OLD-DEFINITIONS|
    #Y(|REPETITIONS|::|REPETITIONS|
       #39Y(00 00 00 00 01 00 00 00 A6 1C 03 00 00 00 3B 03 02 C8 FB 3B 02 02
            C9 FA 3B 01 02 CA F9 B0 E0 B1 B1 B1 2D 05 07 19 05)
       (:|MIN-LENGTH| :|TEST| :|KEY| 1. #.#'|COMMON-LISP|::|EQL|
        #.#'|COMMON-LISP|::|IDENTITY| 0. |REPETITIONS|::|REPETITIONS-1|)
       (|COMMON-LISP|::|T| |COMMON-LISP|::|T| |COMMON-LISP|::|T|)
       (|COMMON-LISP|::|SEQUENCE| |COMMON-LISP|::|&KEY|
        (|REPETITIONS|::|MIN-LENGTH| 1.)
        (|REPETITIONS|::|TEST| #'|COMMON-LISP|::|EQL|)
        (|REPETITIONS|::|KEY| #'|COMMON-LISP|::|IDENTITY|))
       |COMMON-LISP|::|NIL| 1))
   (|COMMON-LISP|::|T| |COMMON-LISP|::|T| |COMMON-LISP|::|T|))
#Y(#:|136 148 (DEFUN TEST-REPETITIONS (&REST ARGS) ...)-13|
   #20Y(00 00 00 00 00 00 00 00 20 01 DA 2F 01 DA DC 32 9C C5 19 01)
   (|REPETITIONS|::|TEST-REPETITIONS| |SYSTEM|::|REMOVE-OLD-DEFINITIONS|
    #Y(|REPETITIONS|::|TEST-REPETITIONS|
       #106Y(03 00 01 00 00 00 00 00 27 16 DA 38 06 72 0B 53 80 49 C6 45 AF 72
             9B 38 02 71 49 AC B1 30 02 99 03 AD A5 77 01 AC DE DF 38 02 32 82
             78 94 00 9E 5C 5B 78 A0 1F 0F B0 AD AF E0 73 02 38 AE B0 E0 73 03
             37 32 60 16 05 41 05 00 00 02 1D 03 14 2F 07 46 54 05 00 00 00 1D
             0E 1B 06 05 00 00 00 1D 06 14 E2 64 2D 03 07 55 19 03)
       ("/cygdrive/c/Users/eier/Google Drive/projects/yamal/lisp/utils/repetitions.lisp"
        #.#'|COMMON-LISP|::|VALUES| |COMMON-LISP|::|READ-SEQUENCE|
        |REPETITIONS|::|REPETITIONS| #.#'|COMMON-LISP|::|>|
        #.#'|COMMON-LISP|::|FIRST| 3. |COMMON-LISP|::|CLOSE| :|ABORT|)
       (|COMMON-LISP|::|T| |COMMON-LISP|::|T| |COMMON-LISP|::|T|)
       (|COMMON-LISP|::|&REST| |REPETITIONS|::|ARGS|) |COMMON-LISP|::|NIL| 1))
   (|COMMON-LISP|::|T| |COMMON-LISP|::|T| |COMMON-LISP|::|T|))
#Y(#:|149 154 (PROVIDE "repetitions")-14|
   #15Y(00 00 00 00 00 00 00 00 20 01 DA 2F 01 19 01)
   ("repetitions" |COMMON-LISP|::|PROVIDE|)
   (|COMMON-LISP|::|T| |COMMON-LISP|::|T| |COMMON-LISP|::|T|))
